Version 4
SHEET 1 1240 700
WIRE 432 -1376 384 -1376
WIRE 384 -1360 384 -1376
WIRE 512 -1312 512 -1376
WIRE 544 -1312 512 -1312
WIRE 640 -1312 608 -1312
WIRE 816 -1264 784 -1264
WIRE 416 -1232 400 -1232
WIRE 512 -1232 512 -1312
WIRE 512 -1232 496 -1232
WIRE 544 -1232 512 -1232
WIRE 640 -1232 640 -1312
WIRE 640 -1232 624 -1232
WIRE 784 -1232 784 -1264
WIRE 816 -1168 816 -1264
WIRE 176 -1136 176 -1152
WIRE 288 -1136 288 -1152
WIRE 512 -1120 512 -1232
WIRE 544 -1120 512 -1120
WIRE 640 -1104 640 -1232
WIRE 640 -1104 608 -1104
WIRE 672 -1104 640 -1104
WIRE 704 -1104 672 -1104
WIRE 816 -1104 784 -1104
WIRE 896 -1104 816 -1104
WIRE 1008 -1104 896 -1104
WIRE 544 -1088 432 -1088
WIRE 432 -1072 432 -1088
WIRE 176 -1040 176 -1056
WIRE 288 -1040 288 -1056
WIRE 432 -976 432 -992
FLAG 176 -1152 +V
FLAG 176 -1040 0
FLAG 432 -976 0
FLAG 432 -1088 IN
FLAG 576 -1136 +V
FLAG 288 -1152 -V
FLAG 288 -1040 0
FLAG 400 -1232 0
FLAG 576 -1072 -V
FLAG 384 -1360 0
FLAG 784 -1232 0
FLAG 672 -1104 Vout1
FLAG 1008 -1104 Vout2
FLAG 896 -1040 0
SYMBOL voltage 176 -1152 R0
SYMATTR InstName V1
SYMATTR Value 5
SYMBOL voltage 432 -1088 R0
WINDOW 123 24 146 Left 2
WINDOW 39 24 125 Left 2
WINDOW 3 -152 138 Left 2
SYMATTR Value PULSE(-0.22 0.5 0 0 0 2.5u 5u 5)
SYMATTR InstName V2
SYMBOL res 512 -1248 R90
WINDOW 0 0 56 VBottom 2
WINDOW 3 32 56 VTop 2
SYMATTR InstName R1
SYMATTR Value 383
SYMBOL res 640 -1248 R90
WINDOW 0 0 56 VBottom 2
WINDOW 3 32 56 VTop 2
SYMATTR InstName R2
SYMATTR Value 1.43k
SYMBOL voltage 288 -1152 R0
SYMATTR InstName V3
SYMATTR Value -5
SYMBOL opamps\\ADA4807-4 576 -1168 R0
WINDOW 3 -53 133 Left 2
SYMATTR InstName U1
SYMBOL res 528 -1392 R90
WINDOW 0 0 56 VBottom 2
WINDOW 3 32 56 VTop 2
SYMATTR InstName R3
SYMATTR Value 6.3k
SYMBOL schottky 544 -1296 R270
WINDOW 0 32 32 VTop 2
WINDOW 3 0 32 VBottom 2
SYMATTR InstName D2
SYMATTR Value PRLL5817
SYMATTR Description Diode
SYMATTR Type diode
SYMBOL res 800 -1120 R90
WINDOW 0 0 56 VBottom 2
WINDOW 3 32 56 VTop 2
SYMATTR InstName R4
SYMATTR Value 154
SYMBOL schottky 800 -1168 R0
WINDOW 3 19 -36 Left 2
SYMATTR Value PRLL5817
SYMATTR InstName D1
SYMATTR Description Diode
SYMATTR Type diode
SYMBOL cap 880 -1104 R0
SYMATTR InstName C1
SYMATTR Value 100p
TEXT 848 -976 Left 2 !.tran 0 15u
