Version 4
SHEET 1 880 680
SYMBOL res 32 96 R0
SYMATTR InstName R1
SYMBOL cap 160 224 R90
WINDOW 0 0 32 VBottom 2
WINDOW 3 32 32 VTop 2
SYMATTR InstName C1
SYMBOL diode 288 224 R0
SYMATTR InstName D1
